Version 4.1
SHEET 1 2068 792
WIRE 336 -432 256 -432
WIRE 544 -432 400 -432
WIRE 656 -432 544 -432
WIRE 800 -432 720 -432
WIRE 864 -432 800 -432
WIRE 800 -384 800 -432
WIRE 448 -336 368 -336
WIRE 368 -304 368 -336
WIRE 128 -288 48 -288
WIRE 256 -288 256 -432
WIRE 256 -288 208 -288
WIRE 320 -288 256 -288
WIRE 544 -256 544 -432
WIRE 544 -256 416 -256
WIRE 800 -256 800 -304
WIRE 320 -224 256 -224
WIRE 544 -208 544 -256
WIRE 368 -176 368 -208
WIRE 432 -80 400 -80
WIRE 544 -80 544 -128
WIRE 544 -80 496 -80
WIRE 688 -48 640 -48
WIRE 640 -16 640 -48
WIRE 592 0 512 0
WIRE 832 32 688 32
WIRE 880 32 832 32
WIRE 976 32 944 32
WIRE 1008 32 976 32
WIRE -288 64 -288 0
WIRE -160 64 -160 0
WIRE 544 64 544 -80
WIRE 592 64 544 64
WIRE 640 112 640 80
WIRE 976 112 976 32
WIRE 256 144 256 -224
WIRE -288 208 -288 144
WIRE -160 208 -160 144
WIRE 256 208 256 144
WIRE 384 208 256 208
WIRE 512 208 512 0
WIRE 512 208 464 208
WIRE 624 208 512 208
WIRE 832 208 832 32
WIRE 832 208 688 208
WIRE 976 240 976 192
WIRE 48 336 48 -288
WIRE 832 336 832 208
WIRE 832 336 48 336
FLAG -288 208 0
FLAG -288 0 Vdd
IOPIN -288 0 Out
FLAG -160 208 0
FLAG -160 0 VbO
IOPIN -160 0 Out
FLAG 448 -336 Vdd
IOPIN 448 -336 In
FLAG 368 -176 0
FLAG 688 -48 Vdd
IOPIN 688 -48 In
FLAG 640 112 0
FLAG 256 144 VbO
IOPIN 256 144 In
FLAG 400 -80 0
FLAG 864 -432 sine
IOPIN 864 -432 Out
FLAG 1008 32 cos
IOPIN 1008 32 Out
FLAG 976 240 0
FLAG 800 -256 0
SYMBOL voltage -288 48 R0
SYMATTR InstName V+
SYMATTR Value 5
SYMBOL voltage -160 48 R0
SYMATTR InstName Vb1
SYMATTR Value 2.5
SYMBOL Custom\ Made\\UA741 352 -256 R0
SYMATTR InstName U1
SYMBOL Custom\ Made\\UA741 624 32 R0
SYMATTR InstName U2
SYMBOL cap 400 -448 R90
WINDOW 0 0 32 VBottom 2
WINDOW 3 32 32 VTop 2
SYMATTR InstName C1
SYMATTR Value {Cosc}
SYMBOL res 112 -304 M90
WINDOW 0 0 56 VBottom 2
WINDOW 3 32 56 VTop 2
SYMATTR InstName R1
SYMATTR Value {Rosc}
SYMBOL cap 688 192 R90
WINDOW 0 0 32 VBottom 2
WINDOW 3 32 32 VTop 2
SYMATTR InstName C2
SYMATTR Value {Cosc}
SYMBOL res 480 192 R90
WINDOW 0 0 56 VBottom 2
WINDOW 3 32 56 VTop 2
SYMATTR InstName R2
SYMATTR Value {Rosc}
SYMBOL res 528 -224 R0
SYMATTR InstName R3
SYMATTR Value {Rosc}
SYMBOL cap 496 -96 R90
WINDOW 0 0 32 VBottom 2
WINDOW 3 32 32 VTop 2
SYMATTR InstName C3
SYMATTR Value {Cosc}
SYMBOL cap 720 -448 R90
WINDOW 0 0 32 VBottom 2
WINDOW 3 32 32 VTop 2
SYMATTR InstName Cc1
SYMATTR Value 10p
SYMBOL cap 944 16 R90
WINDOW 0 0 32 VBottom 2
WINDOW 3 32 32 VTop 2
SYMATTR InstName Cc2
SYMATTR Value 10p
SYMBOL res 784 -288 M180
WINDOW 0 36 76 Left 2
WINDOW 3 36 40 Left 2
SYMATTR InstName R4
SYMATTR Value 1k
SYMBOL res 960 96 R0
SYMATTR InstName R5
SYMATTR Value 1k
TEXT 1120 -376 Left 2 !.tran 0 10m 0
TEXT 1120 -336 Left 2 !.include "TSMC_180nm.txt"
TEXT 1120 -296 Left 2 !.param l=.18u w=1.8u Rosc=3.55k Cosc=160p
TEXT -352 272 Left 3 ;Supply Voltages
TEXT 1120 -248 Left 2 !.meas TRAN VtopS MAX V(sine) FROM 4m TO 9m
TEXT 1120 -208 Left 2 !.meas TRAN VlowS MIN V(sine) FROM 4m TO 9m
TEXT 1120 -168 Left 2 !.meas TRAN VtopC MAX V(cos) FROM 4m TO 9m
TEXT 1120 -128 Left 2 !.meas TRAN VlowC MIN V(cos) FROM 4m TO 9m
TEXT 1120 -88 Left 2 !.meas TRAN VampS PARAM VtopS-VlowS
TEXT 1120 -48 Left 2 !.meas TRAN VampC PARAM VtopC-VlowC
RECTANGLE Normal -64 320 -400 -96 1
