Version 4.1
SHEET 1 2068 792
WIRE 336 -432 256 -432
WIRE 544 -432 400 -432
WIRE 864 -432 544 -432
WIRE 1040 -432 864 -432
WIRE 1168 -432 1104 -432
WIRE 1248 -432 1168 -432
WIRE 1392 -432 1328 -432
WIRE 1168 -368 1168 -432
WIRE 448 -336 368 -336
WIRE 1152 -320 1040 -320
WIRE 1392 -320 1248 -320
WIRE 1440 -320 1392 -320
WIRE 1552 -320 1440 -320
WIRE 1664 -320 1632 -320
WIRE 1888 -320 1664 -320
WIRE 368 -304 368 -336
WIRE 128 -288 48 -288
WIRE 256 -288 256 -432
WIRE 256 -288 208 -288
WIRE 320 -288 256 -288
WIRE 1392 -272 1392 -320
WIRE 1664 -272 1664 -320
WIRE 544 -256 544 -432
WIRE 544 -256 416 -256
WIRE -288 -240 -368 -240
WIRE -128 -240 -208 -240
WIRE 320 -224 256 -224
WIRE 544 -208 544 -256
WIRE 368 -176 368 -208
WIRE 1200 -160 1200 -320
WIRE 1392 -160 1392 -192
WIRE 1392 -160 1200 -160
WIRE 1664 -144 1664 -208
WIRE 1200 -128 1200 -160
WIRE 432 -80 400 -80
WIRE 544 -80 544 -128
WIRE 544 -80 496 -80
WIRE 688 -48 640 -48
WIRE 640 -16 640 -48
WIRE 592 0 512 0
WIRE 832 32 688 32
WIRE 864 32 832 32
WIRE 1056 32 864 32
WIRE 1184 32 1120 32
WIRE 1264 32 1184 32
WIRE 1408 32 1344 32
WIRE -416 64 -416 0
WIRE -288 64 -288 0
WIRE -160 64 -160 0
WIRE 544 64 544 -80
WIRE 592 64 544 64
WIRE 1184 96 1184 32
WIRE 640 112 640 80
WIRE 256 144 256 -224
WIRE 1040 144 1040 -320
WIRE 1168 144 1040 144
WIRE 1408 144 1264 144
WIRE 1456 144 1408 144
WIRE 1552 144 1456 144
WIRE 1648 144 1632 144
WIRE 1888 144 1648 144
WIRE 1408 192 1408 144
WIRE 1648 192 1648 144
WIRE -416 208 -416 144
WIRE -288 208 -288 144
WIRE -160 208 -160 144
WIRE 256 208 256 144
WIRE 384 208 256 208
WIRE 512 208 512 0
WIRE 512 208 464 208
WIRE 624 208 512 208
WIRE 832 208 832 32
WIRE 832 208 688 208
WIRE 1216 304 1216 144
WIRE 1408 304 1408 272
WIRE 1408 304 1216 304
WIRE 1648 320 1648 256
WIRE 48 336 48 -288
WIRE 832 336 832 208
WIRE 832 336 48 336
WIRE 1216 336 1216 304
WIRE 1040 448 1040 144
WIRE 1040 448 896 448
FLAG -288 208 0
FLAG -288 0 Vdd
IOPIN -288 0 Out
FLAG -160 208 0
FLAG -160 0 VbO
IOPIN -160 0 Out
FLAG 1216 336 0
FLAG 1200 -128 0
FLAG 1456 144 IF
FLAG 1440 -320 QF
FLAG 1648 320 0
FLAG 1664 -144 0
FLAG -128 -240 Vin
IOPIN -128 -240 Out
FLAG -368 -240 0
FLAG 1392 -432 Vbias
IOPIN 1392 -432 In
FLAG 1408 32 Vbias
IOPIN 1408 32 In
FLAG 896 448 Vin
IOPIN 896 448 In
FLAG 448 -336 Vdd
IOPIN 448 -336 In
FLAG 368 -176 0
FLAG 688 -48 Vdd
IOPIN 688 -48 In
FLAG 640 112 0
FLAG 256 144 VbO
IOPIN 256 144 In
FLAG 400 -80 0
FLAG -416 208 0
FLAG -416 0 Vbias
IOPIN -416 0 Out
FLAG 1888 144 IF_Final
IOPIN 1888 144 Out
FLAG 1888 -320 QF_Final
IOPIN 1888 -320 Out
FLAG 864 -432 sine
FLAG 864 32 cos
SYMBOL voltage -288 48 R0
SYMATTR InstName V+
SYMATTR Value 5
SYMBOL voltage -160 48 R0
SYMATTR InstName Vb1
SYMATTR Value 2.5
SYMBOL cap 1120 16 R90
WINDOW 0 0 32 VBottom 2
WINDOW 3 32 32 VTop 2
SYMATTR InstName C4
SYMATTR Value 10µ
SYMBOL res 1360 16 R90
WINDOW 0 0 56 VBottom 2
WINDOW 3 32 56 VTop 2
SYMATTR InstName R4
SYMATTR Value 10Meg
SYMBOL nmos4 1264 96 R90
SYMATTR InstName M1
SYMATTR Value CMOSN
SYMATTR Value2 l=l w=w ad=2.5*l*w as=2.5*l*w pd=5*l+2*w ps=5*l+2*w
SYMBOL res 1392 176 R0
SYMATTR InstName RL
SYMATTR Value 1k
SYMBOL cap 1104 -448 R90
WINDOW 0 0 32 VBottom 2
WINDOW 3 32 32 VTop 2
SYMATTR InstName C5
SYMATTR Value 10µ
SYMBOL res 1344 -448 R90
WINDOW 0 0 56 VBottom 2
WINDOW 3 32 56 VTop 2
SYMATTR InstName R5
SYMATTR Value 10Meg
SYMBOL nmos4 1248 -368 R90
SYMATTR InstName M2
SYMATTR Value CMOSN
SYMATTR Value2 l=l w=w ad=2.5*l*w as=2.5*l*w pd=5*l+2*w ps=5*l+2*w
SYMBOL res 1376 -288 R0
SYMATTR InstName RL1
SYMATTR Value 1k
SYMBOL cap 1680 -208 R180
WINDOW 0 -41 55 Left 2
WINDOW 3 -22 7 Left 2
SYMATTR InstName ClpQ
SYMATTR Value {Clp}
SYMBOL res 1648 -336 R90
WINDOW 0 0 56 VBottom 2
WINDOW 3 32 56 VTop 2
SYMATTR InstName RlpQ
SYMATTR Value {Rlp}
SYMBOL res 1648 128 R90
WINDOW 0 0 56 VBottom 2
WINDOW 3 32 56 VTop 2
SYMATTR InstName RlpI
SYMATTR Value {Rlp}
SYMBOL cap 1632 192 R0
SYMATTR InstName ClpI
SYMATTR Value {Clp}
SYMBOL voltage -192 -240 R90
WINDOW 0 -32 56 VBottom 2
WINDOW 3 32 56 VTop 2
SYMATTR InstName Vin
SYMATTR Value SINE(0 100m 98k 0 0 90)
SYMBOL Custom\ Made\\UA741 352 -256 R0
SYMATTR InstName U1
SYMBOL Custom\ Made\\UA741 624 32 R0
SYMATTR InstName U2
SYMBOL cap 400 -448 R90
WINDOW 0 0 32 VBottom 2
WINDOW 3 32 32 VTop 2
SYMATTR InstName C1
SYMATTR Value {Cosc}
SYMBOL res 112 -304 M90
WINDOW 0 0 56 VBottom 2
WINDOW 3 32 56 VTop 2
SYMATTR InstName R1
SYMATTR Value {Rosc}
SYMBOL cap 688 192 R90
WINDOW 0 0 32 VBottom 2
WINDOW 3 32 32 VTop 2
SYMATTR InstName C2
SYMATTR Value {Cosc}
SYMBOL res 480 192 R90
WINDOW 0 0 56 VBottom 2
WINDOW 3 32 56 VTop 2
SYMATTR InstName R2
SYMATTR Value {Rosc}
SYMBOL res 528 -224 R0
SYMATTR InstName R3
SYMATTR Value {Rosc}
SYMBOL cap 496 -96 R90
WINDOW 0 0 32 VBottom 2
WINDOW 3 32 32 VTop 2
SYMATTR InstName C3
SYMATTR Value {Cosc}
SYMBOL voltage -416 48 R0
WINDOW 123 0 0 Left 0
WINDOW 39 0 0 Left 0
SYMATTR InstName Vbias
SYMATTR Value .5
TEXT 16 448 Left 2 !.tran 0 10m 0
TEXT 16 488 Left 2 !.include "TSMC_180nm.txt"
TEXT 16 528 Left 2 !.param l=.18u w=1.8u Rosc=3.55k Cosc=160p Rlp=10k Clp=2.65n
TEXT 1128 -32 Left 2 ;In-phase Mixer
TEXT 968 -200 Left 2 ;Quadrature Mixer
TEXT 1544 16 Left 2 ;In-phase Low Pass Filter
TEXT 1520 -440 Left 2 ;Quadrature Low Pass Filter
TEXT -328 -336 Left 3 ;Input Signal
TEXT -384 272 Left 3 ;Supply Voltages
TEXT 560 -312 Left 3 ;Quadrature Oscillator
TEXT 16 576 Left 2 !.meas TRAN VtopS MAX V(sine) FROM 4m TO 9m
TEXT 16 616 Left 2 !.meas TRAN VlowS MIN V(sine) FROM 4m TO 9m
TEXT 16 656 Left 2 !.meas TRAN VtopC MAX V(cos) FROM 4m TO 9m
TEXT 16 696 Left 2 !.meas TRAN VlowC MIN V(cos) FROM 4m TO 9m
TEXT 16 736 Left 2 !.meas TRAN VampS PARAM VtopS-VlowS
TEXT 16 776 Left 2 !.meas TRAN VampC PARAM VtopC-VlowC
RECTANGLE Normal 1488 -96 944 -512 1
RECTANGLE Normal 1504 384 944 -64 1
RECTANGLE Normal 1824 -96 1504 -512 1
RECTANGLE Normal 1824 384 1520 -64 1
RECTANGLE Normal -48 -144 -416 -368 1
RECTANGLE Normal -48 320 -512 -112 1
RECTANGLE Normal -16 400 896 -512 1
